<routes>
    <vType id="car" accel="1.0" decel="4.5" sigma="0.5" length="5" maxSpeed="25"/>

    <route id="r0" edges="1"/>

    <vehicle id="v0" type="car" route="r0" depart="0"/>
</routes>